Version 4
SHEET 1 1080 680
WIRE -1040 -320 -1264 -320
WIRE -528 -320 -752 -320
WIRE -528 -80 -528 -320
WIRE -288 -80 -528 -80
WIRE -1040 96 -1264 96
WIRE -624 96 -752 96
WIRE -624 224 -624 96
WIRE -288 224 -624 224
WIRE -528 416 -528 -80
WIRE -288 416 -528 416
WIRE -624 464 -624 224
WIRE -288 464 -624 464
FLAG -176 -384 VDD
IOPIN -176 -384 In
FLAG -176 -128 VDD
IOPIN -176 -128 In
FLAG -176 128 VDD
IOPIN -176 128 In
FLAG -176 368 VDD
IOPIN -176 368 In
FLAG -912 32 VDD
IOPIN -912 32 In
FLAG -912 -384 VDD
IOPIN -912 -384 In
FLAG -1264 -320 M1
IOPIN -1264 -320 In
FLAG -288 -336 M1
IOPIN -288 -336 In
FLAG -288 176 M1
IOPIN -288 176 In
FLAG -1264 96 M2
IOPIN -1264 96 In
FLAG -288 -288 M2
IOPIN -288 -288 In
FLAG -288 -32 M2
IOPIN -288 -32 In
FLAG -288 512 IN
IOPIN -288 512 In
FLAG -288 272 IN
IOPIN -288 272 In
FLAG -288 16 IN
IOPIN -288 16 In
FLAG -288 -240 IN
IOPIN -288 -240 In
FLAG -48 -288 OUT1
IOPIN -48 -288 Out
FLAG -48 -32 OUT2
IOPIN -48 -32 Out
FLAG -48 224 OUT3
IOPIN -48 224 Out
FLAG -48 464 OUT4
IOPIN -48 464 Out
SYMBOL and3 -176 -288 R0
SYMATTR InstName X1
SYMBOL and3 -176 -32 R0
SYMATTR InstName X2
SYMBOL and3 -176 224 R0
SYMATTR InstName X3
SYMBOL and3 -176 464 R0
SYMATTR InstName X4
SYMBOL not -912 -320 R0
SYMATTR InstName X5
SYMBOL not -912 96 R0
SYMATTR InstName X6
