Version 4
SHEET 1 2180 1108
WIRE 1008 448 944 448
WIRE 528 480 464 480
WIRE 608 480 528 480
WIRE 528 624 464 624
WIRE 608 624 528 624
WIRE 528 768 464 768
WIRE 608 768 528 768
WIRE 528 912 464 912
WIRE 608 912 528 912
WIRE 1024 944 960 944
WIRE 1104 944 1024 944
FLAG -288 496 0
FLAG -288 416 VDD
FLAG 256 192 VDD
FLAG -144 496 0
FLAG -144 656 0
FLAG -144 816 0
FLAG -144 416 M1
FLAG 160 256 M1
FLAG -144 576 M2
FLAG 160 288 M2
FLAG -144 736 IN
FLAG 160 352 IN
FLAG 528 560 0
FLAG 608 544 0
FLAG 528 704 0
FLAG 608 688 0
FLAG 528 848 0
FLAG 608 832 0
FLAG 528 992 0
FLAG 608 976 0
FLAG 464 480 OUT1
FLAG 352 256 OUT1
FLAG 464 624 OUT2
FLAG 352 288 OUT2
FLAG 352 320 OUT3
FLAG 464 768 OUT3
FLAG 464 912 OUT4
FLAG 352 352 OUT4
FLAG 928 688 M1
FLAG 928 736 M2
FLAG 928 784 IN
FLAG 880 240 IN
FLAG 1008 176 VDD
FLAG 1040 640 VDD
FLAG 1008 528 0
FLAG 1088 512 0
FLAG 944 448 NOT
FLAG 1024 1024 0
FLAG 1104 1008 0
FLAG 960 944 AND
FLAG 1168 240 NOT
FLAG 1168 736 AND
SYMBOL demultiplexer 256 304 R0
SYMATTR InstName X1
SYMBOL voltage -144 400 R0
WINDOW 123 0 0 Left 0
WINDOW 39 0 0 Left 0
SYMATTR InstName V1
SYMATTR Value PULSE(0 3 1n 10p 10p 8n 16n)
SYMBOL voltage -144 560 R0
WINDOW 123 0 0 Left 0
WINDOW 39 0 0 Left 0
SYMATTR InstName V2
SYMATTR Value PULSE(0 3 1n 10p 10p 4n 8n)
SYMBOL voltage -144 720 R0
WINDOW 123 0 0 Left 0
WINDOW 39 0 0 Left 0
SYMATTR InstName V3
SYMATTR Value PULSE(0 3 1n 10p 10p 2n 4n)
SYMBOL voltage -288 400 R0
WINDOW 123 0 0 Left 0
WINDOW 39 0 0 Left 0
SYMATTR InstName VDD
SYMATTR Value 3
SYMBOL res 512 464 R0
SYMATTR InstName R1
SYMATTR Value 100k
SYMBOL cap 592 480 R0
SYMATTR InstName C1
SYMATTR Value 100f
SYMBOL cap 592 624 R0
SYMATTR InstName C2
SYMATTR Value 100f
SYMBOL cap 592 768 R0
SYMATTR InstName C3
SYMATTR Value 100f
SYMBOL cap 592 912 R0
SYMATTR InstName C4
SYMATTR Value 100f
SYMBOL res 512 608 R0
SYMATTR InstName R2
SYMATTR Value 100k
SYMBOL res 512 752 R0
SYMATTR InstName R3
SYMATTR Value 100k
SYMBOL res 512 896 R0
SYMATTR InstName R4
SYMATTR Value 100k
SYMBOL not 1008 240 R0
SYMATTR InstName X2
SYMBOL and3 1040 736 R0
SYMATTR InstName X3
SYMBOL res 992 432 R0
SYMATTR InstName R5
SYMATTR Value 100k
SYMBOL cap 1072 448 R0
SYMATTR InstName C5
SYMATTR Value 100f
SYMBOL res 1008 928 R0
SYMATTR InstName R6
SYMATTR Value 100k
SYMBOL cap 1088 944 R0
SYMATTR InstName C6
SYMATTR Value 100f
TEXT -312 288 Left 2 !.include 90nm_bulk.txt
TEXT -312 240 Left 2 !.tran 0 33n 0 1p
